test/fixtures/powermodels/case5/sol_dc_opf.json
{
  "termination_status": "OPTIMAL",
  "objective": 17613.215877956456,
  "solution": {
    "baseMVA": 100.0,
    "branch": {
      "4": {
        "qf": null,
        "qt": null,
        "pt": 0.5835253998157415,
        "pf": -0.5835253998157415
      },
      "1": {
        "qf": null,
        "qt": null,
        "pt": -2.416474600184257,
        "pf": 2.416474600184257
      },
      "5": {
        "qf": null,
        "qt": null,
        "pt": 0.1478306780372723,
        "pf": -0.1478306780372723
      },
      "2": {
        "qf": null,
        "qt": null,
        "pt": -1.8819174608375202,
        "pf": 1.8819174608375202
      },
      "6": {
        "qf": null,
        "qt": null,
        "pt": 0.13408678280024697,
        "pf": -0.13408678280024697
      },
      "7": {
        "qf": null,
        "qt": null,
        "pt": 2.4,
        "pf": -2.4
      },
      "3": {
        "qf": null,
        "qt": null,
        "pt": 2.1983920610217775,
        "pf": -2.1983920610217775
      }
    },
    "gen": {
      "4": {
        "qg": null,
        "pg": 0.0,
        "pg_cost": 0.0
      },
      "1": {
        "qg": null,
        "pg": 0.4,
        "pg_cost": 560.0
      },
      "5": {
        "qg": null,
        "pg": 4.598392061021777,
        "pg_cost": 4598.392061021777
      },
      "2": {
        "qg": null,
        "pg": 1.7,
        "pg_cost": 2550.0
      },
      "3": {
        "qg": null,
        "pg": 3.3016079389782256,
        "pg_cost": 9904.823816934677
      }
    },
    "multiinfrastructure": false,
    "multinetwork": false,
    "bus": {
      "4": {
        "va": -0.0,
        "vm": 1.0
      },
      "1": {
        "va": 0.05778239371755523,
        "vm": 1.0
      },
      "10": {
        "va": 0.0719928,
        "vm": 1.0
      },
      "2": {
        "va": -0.010799571910274166,
        "vm": 1.0
      },
      "3": {
        "va": -0.004434476849084057,
        "vm": 1.0
      }
    },
    "per_unit": true
  }
}

